* PSpice Model Editor - Version 22.1.0

*$


*DEVICE=mydiode,D

* mydiode D model
* created using Model Editor release 22.1.0 on 05/18/23 at 18:05
* The Model Editor is a PSpice product.
.MODEL mydiode D
+ IS=50.032E-9
+ N=5
+ RS=1.2510
*$
